 104

C	-6.34669603	0.56302916	4.57951968
C	-4.90436206	0.50020855	4.24506017
C	-4.46219427	0.29890394	2.95455918
C	-3.12321934	0.23848019	2.63489636
N	-2.49080718	0.05596248	1.48403819
C	-2.99383308	-0.14267221	0.14111089
C	-3.81336040	0.98214473	-0.39242451
C	-3.04009264	2.28862760	-0.44633145
C	-4.03341098	3.31168099	-1.00953189
C	-3.42414006	4.66550180	-1.12748919
C	-4.40039945	5.66644494	-1.68398736
C	-5.61621507	5.82516847	-0.83594143
C	-5.29982098	6.28842775	0.56644721
C	-4.60727128	7.61894336	0.49160226
C	-3.65570435	-1.48757261	0.05995442
C	-4.22578120	-1.82091112	-1.28579916
C	-4.86201115	-3.18751486	-1.21834557
C	-3.85387350	-4.24367990	-0.83884285
C	-2.71423156	-4.34364212	-1.80728743
C	-1.74456429	-5.39850566	-1.36710749
C	-2.40938547	-6.73136722	-1.29509445
C	-1.35702605	-7.76136085	-0.85463474
C	-1.16057436	0.09245465	1.80549259
C	-0.99053185	0.29534586	3.13686490
C	0.25318277	0.37409365	3.73507546
C	1.40037962	0.24233267	2.95885277
C	1.20401844	0.03732481	1.61393354
C	2.41653842	-0.10502131	0.79045591
C	2.49650334	-0.32967387	-0.58212270
C	3.73133068	-0.42640280	-1.10292248
C	4.80166673	-0.30916431	-0.32203474
C	6.22592349	-0.34470250	-0.46170314
C	7.05539688	-0.16041891	0.62412963
C	8.42385170	-0.20380964	0.46031750
C	9.00457011	-0.42844100	-0.76907461
C	10.43707573	-0.46899818	-0.91346392
C	11.30743891	-0.65717577	-1.90532882
C	12.62830942	-0.62576337	-1.65483332
C	13.00995025	-0.39607673	-0.36051014
C	14.38370488	-0.29993814	0.24916080
S	11.45952117	-0.22111612	0.51862282
C	8.11119296	-0.60843615	-1.83407429
N	8.65642487	-0.84816922	-3.14468554
S	7.16291689	-1.01162296	-4.14705838
N	6.07460035	-0.76967779	-2.85573296
C	6.83680020	-0.57117891	-1.69980923
S	4.08582447	-0.03513323	1.31545204
C	-0.01039975	-0.04135768	1.01689335
C	-2.23532279	0.39226655	3.69045138
C	-2.64300838	0.59448083	4.98923103
C	-3.99345963	0.64877217	5.26735382
H	-6.93606725	0.82697789	3.67843660
H	-6.65310858	-0.35844911	5.07048855
H	-6.47451458	1.41686431	5.29603933
H	-5.18645460	0.18719340	2.19206513
H	-2.10750922	-0.22142509	-0.56668950
H	-4.04760116	0.76857513	-1.48102400
H	-4.81115419	1.10636289	0.06076506
H	-2.62804758	2.59601069	0.52474400
H	-2.24543618	2.18013508	-1.19884160
H	-4.95778487	3.32835658	-0.39196763
H	-4.31592098	2.95105392	-2.01803308
H	-2.56135829	4.58157583	-1.83210320
H	-2.97320225	5.00749349	-0.17287028
H	-4.75742494	5.23204760	-2.66368665
H	-3.92335593	6.62138687	-1.96262911
H	-6.26858799	6.61222639	-1.27275209
H	-6.17909993	4.87925829	-0.82433729
H	-6.30345370	6.47368038	1.04144749
H	-4.77543259	5.55165846	1.18284904
H	-5.31990410	8.37641928	0.11385443
H	-3.68443421	7.58272923	-0.12457328
H	-4.24417566	7.88253097	1.52338079
H	-4.37429618	-1.61677799	0.88390418
H	-2.86659537	-2.27483372	0.25674578
H	-3.44430048	-1.85519027	-2.07236846
H	-4.94890202	-1.04963314	-1.62959238
H	-5.66417972	-3.24131491	-0.46454955
H	-5.27238363	-3.50494882	-2.20473104
H	-3.47767012	-4.18905802	0.18120698
H	-4.44575816	-5.21193223	-0.87015696
H	-2.13305338	-3.38724762	-1.86724054
H	-3.15571041	-4.56467793	-2.80277172
H	-1.39442804	-5.13950848	-0.32937149
H	-0.84454425	-5.44383363	-2.01144074
H	-3.24045605	-6.76276777	-0.54259762
H	-2.79554333	-7.06960099	-2.27455732
H	-0.81569220	-8.08635833	-1.75579560
H	-1.88589850	-8.58431383	-0.33641888
H	-0.65868640	-7.22655515	-0.18987471
H	0.35248643	0.53667757	4.79783057
H	2.35923717	0.30582568	3.43827433
H	1.55260341	-0.41462025	-1.15564941
H	3.85009506	-0.60850553	-2.21302641
H	6.66578021	0.02318046	1.63487232
H	9.01561468	-0.04751451	1.37433570
H	10.94618780	-0.84409626	-2.95860710
H	13.40828116	-0.77480641	-2.43515889
H	14.98870560	-1.21996750	0.03823253
H	14.93060263	0.54067886	-0.22542871
H	14.29571267	-0.18582495	1.34713083
H	-0.13854594	-0.20219453	-0.03663066
H	-1.90609859	0.70968801	5.78393002
H	-4.30396044	0.80627970	6.28003944
