 78

C	1.63874636	-2.78781458	2.44454563
C	2.94927361	-2.38789690	1.87350837
C	3.16128113	-1.10179985	1.48572322
N	2.15019954	-0.22334359	1.63956106
C	2.32384606	1.05237783	1.26874308
O	1.36101447	2.03663625	1.37967240
C	0.07573434	1.81934309	1.89661290
C	-0.70652532	0.78801470	1.10340074
C	-2.05810255	0.63019398	1.73263843
C	-2.91980064	-0.39938399	0.99111414
C	-4.24280150	-0.49159524	1.70209687
C	-5.19160234	-1.47479771	1.09124410
C	-5.49555333	-1.09174350	-0.33196470
C	-6.47284861	-2.07996268	-0.91506505
C	-5.98381424	-3.49073345	-0.94661544
C	-7.06065929	-4.37710349	-1.57019140
C	-0.76599171	1.12678785	-0.34754393
C	-1.42839975	2.45379287	-0.64778131
C	-1.40868224	2.64757136	-2.14752660
C	-2.05481170	3.95853105	-2.54326816
C	-1.35328617	5.14394583	-1.93588055
C	-2.08730042	6.40458045	-2.40241272
C	3.54981552	1.39981132	0.74125121
N	4.55481697	0.52701341	0.58823814
C	4.38367441	-0.74628278	0.95752953
C	5.43082388	-1.62578284	0.79151121
C	5.17237823	-2.93971911	1.20289256
F	6.11542209	-3.90888210	1.09583986
C	3.95795266	-3.31428631	1.73278605
F	3.73592730	-4.57449855	2.11849738
C	6.72261608	-1.25467873	0.23349114
S	8.00014898	-2.49329835	0.07515958
C	9.21008944	-1.31085634	-0.65299014
C	10.58394630	-1.69020209	-1.05826104
C	8.52564471	-0.13338102	-0.69424120
C	7.25695996	-0.13189886	-0.23547525
H	1.74823644	-3.52477094	3.24150922
H	1.09577741	-1.91772051	2.86868770
H	0.98691820	-3.22165329	1.66016463
H	0.22003103	1.37942396	2.91858610
H	-0.48412284	2.75478464	2.06779892
H	-0.18769096	-0.17537535	1.20174315
H	-1.95079431	0.25694077	2.77414006
H	-2.56063919	1.60217755	1.78017177
H	-2.40510470	-1.37778456	0.96543977
H	-3.05681156	-0.04763620	-0.06645268
H	-4.72450630	0.51171529	1.72267468
H	-4.03679566	-0.85567856	2.74206977
H	-4.78263416	-2.51332727	1.16145756
H	-6.13905162	-1.44801163	1.69646100
H	-4.55023525	-1.06442662	-0.91916158
H	-5.95125039	-0.07583027	-0.32571679
H	-7.40652115	-2.00313165	-0.28651445
H	-6.74053815	-1.74285021	-1.95063447
H	-5.08854521	-3.57351088	-1.59489933
H	-5.72134889	-3.86156284	0.05434775
H	-7.25535478	-3.95801184	-2.58690990
H	-7.97175492	-4.40216528	-0.95971482
H	-6.59273986	-5.37059701	-1.70763558
H	0.29658967	1.12284445	-0.73987533
H	-1.26386741	0.31031347	-0.89272908
H	-2.50007151	2.40048489	-0.36577292
H	-0.98838158	3.27136551	-0.07941423
H	-0.40585325	2.53568912	-2.56032440
H	-2.05118325	1.84354091	-2.57089386
H	-1.97325779	4.07612337	-3.64230519
H	-3.09710605	3.98381209	-2.19606963
H	-0.31348224	5.25311278	-2.34321525
H	-1.31103832	5.13665583	-0.83634227
H	-1.37948465	7.22814494	-2.61055001
H	-2.64462422	6.20979182	-3.31811365
H	-2.73099177	6.74113733	-1.56068476
H	3.73963254	2.43100033	0.42378719
H	11.34848723	-1.35572822	-0.30361702
H	10.67715225	-2.80704016	-1.14321841
H	10.83280855	-1.31818124	-2.07932020
H	9.02501895	0.77836914	-1.09867400
H	6.66499745	0.82890837	-0.25711958
